test/checkSuCo/#1 SuCo TD Lai Chau-LaiChau-1.py.txt

  ITER       DELTAP      BUS         DELTAQ      BUS        DELTA/V/      BUS       DELTAANG      BUS
   0         0.0000(   137031   )    0.0000(   321010   )
                                                             0.13209(   937061   )   0.02614(   914025   )
   1         0.0437(   137031   )    0.9115(   975042   )
                                                             0.12024(   914025   )   0.02695(   914025   )
   2         0.0325(   137031   )    0.0548(   914025   )
                                                             0.01360(   937061   )   0.00579(   138003   )
   3         0.0011(   137031   )    0.0010(   972322   )
                                                             0.00020(   937061   )   0.00011(   138003   )
   4         0.0000(   137031   )    0.0000(   972322   )


 Reached tolerance in 4 iterations

 Largest mismatch:      0.00 MW     -0.00 Mvar      0.00 MVA at bus 72010 [VINHTAN5    500.00]
 System total absolute mismatch:                    0.00 MVA

 SWING BUS SUMMARY:
   BUS# X-- NAME --X BASKV      PGEN     PMAX    PMIN      QGEN     QMAX    QMIN
 113017 MAOMAOTIAO1 110.00      91.9    150.0     0.0      -5.2     50.0   -30.0
 126047 THAMCAU1    110.00      59.5    150.0     0.0     -33.0*    30.0   -30.0
 923011 HOABINH_H1  15.800     214.4    240.0     0.0      55.5    180.0   -80.0

  ITER       DELTAP      BUS         DELTAQ      BUS        DELTA/V/      BUS       DELTAANG      BUS
   0         0.0000(   137031   )    0.0000(   321010   )
                                                             0.13209(   937061   )   0.02614(   914025   )
   1         0.0437(   137031   )    0.9115(   975042   )
                                                             0.12024(   914025   )   0.02695(   914025   )
   2         0.0325(   137031   )    0.0548(   914025   )
                                                             0.01360(   937061   )   0.00579(   138003   )
   3         0.0011(   137031   )    0.0010(   972322   )
                                                             0.00020(   937061   )   0.00011(   138003   )
   4         0.0000(   137031   )    0.0000(   972322   )


 Reached tolerance in 4 iterations

 Largest mismatch:      0.00 MW     -0.00 Mvar      0.00 MVA at bus 72010 [VINHTAN5    500.00]
 System total absolute mismatch:                    0.00 MVA

 SWING BUS SUMMARY:
   BUS# X-- NAME --X BASKV      PGEN     PMAX    PMIN      QGEN     QMAX    QMIN
 113017 MAOMAOTIAO1 110.00      91.9    150.0     0.0      -5.2     50.0   -30.0
 126047 THAMCAU1    110.00      59.5    150.0     0.0     -33.0*    30.0   -30.0
 923011 HOABINH_H1  15.800     214.4    240.0     0.0      55.5    180.0   -80.0

  ITER       DELTAP      BUS         DELTAQ      BUS        DELTA/V/      BUS       DELTAANG      BUS
   0         0.0000(   137031   )    0.0000(   321010   )
                                                             0.13209(   937061   )   0.02614(   914025   )
   1         0.0437(   137031   )    0.9115(   975042   )
                                                             0.12024(   914025   )   0.02695(   914025   )
   2         0.0325(   137031   )    0.0548(   914025   )
                                                             0.01360(   937061   )   0.00579(   138003   )
   3         0.0011(   137031   )    0.0010(   972322   )
                                                             0.00020(   937061   )   0.00011(   138003   )
   4         0.0000(   137031   )    0.0000(   334010   )


 Reached tolerance in 4 iterations

 Largest mismatch:      0.00 MW     -0.00 Mvar      0.00 MVA at bus 72010 [VINHTAN5    500.00]
 System total absolute mismatch:                    0.00 MVA

 SWING BUS SUMMARY:
   BUS# X-- NAME --X BASKV      PGEN     PMAX    PMIN      QGEN     QMAX    QMIN
 113017 MAOMAOTIAO1 110.00      91.9    150.0     0.0      -5.2     50.0   -30.0
 126047 THAMCAU1    110.00      59.5    150.0     0.0     -33.0*    30.0   -30.0
 923011 HOABINH_H1  15.800     214.4    240.0     0.0      55.5    180.0   -80.0
 Diagonals = 3804   Off-diagonals = 8791   Maximum size = 11094

  ITER       DELTAP      BUS         DELTAQ      BUS        DELTA/V/      BUS       DELTAANG      BUS
   0         0.0000(   137031   )    0.0000(   334010   )
                                                             0.13209(   937061   )   0.02614(   914025   )
   1         0.0437(   137031   )    0.9115(   975042   )
                                                             0.12024(   914025   )   0.02695(   914025   )
   2         0.0325(   137031   )    0.0548(   914025   )
                                                             0.01360(   937061   )   0.00579(   138003   )
   3         0.0011(   137031   )    0.0010(   972322   )
                                                             0.00020(   937061   )   0.00011(   138003   )
   4         0.0000(   137031   )    0.0000(   334010   )


 Reached tolerance in 4 iterations

 Largest mismatch:     -0.00 MW     -0.00 Mvar      0.00 MVA at bus 72010 [VINHTAN5    500.00]
 System total absolute mismatch:                    0.00 MVA

 SWING BUS SUMMARY:
   BUS# X-- NAME --X BASKV      PGEN     PMAX    PMIN      QGEN     QMAX    QMIN
 113017 MAOMAOTIAO1 110.00      91.9    150.0     0.0      -5.2     50.0   -30.0
 126047 THAMCAU1    110.00      59.5    150.0     0.0     -33.0*    30.0   -30.0
 923011 HOABINH_H1  15.800     214.4    240.0     0.0      55.5    180.0   -80.0

 1346 loads converted during this step

 1346 of 1346 loads converted
 No plant at type 2 bus 290009 [TRAVINH2    220.00]--bus type code set to 1
 No plant at type 2 bus 212015 [LANGSON2    220.00]--bus type code set to 1
 No plant at type 2 bus 219021 [TXSONLA2    220.00]--bus type code set to 1
 No plant at type 2 bus 216023 [THANUYEN2   220.00]--bus type code set to 1
 No plant at type 2 bus 213002 [BACME       220.00]--bus type code set to 1
 No plant at type 2 bus 138081 [HBRE_HT     110.00]--bus type code set to 1

 Generator conversion completed using ZSORCE
 Diagonals = 3807   Off-diagonals = 8794   Maximum size = 11100

 3807 diagonal and 8118 off-diagonal elements

 ITER DELTAV/TOL X-------- AT BUS ---------X  REAL(DELTAV)  IMAG(DELTAV)
    1     1.564  777082 [THUDUC214_C215.000]    0.9050E-05    0.1276E-04
    2     0.006  170149 [DATEH       110.00]    0.6102E-07    0.1955E-07

 Reached tolerance in 2 iterations

 Largest mismatch:     -0.00 MW      0.02 Mvar      0.02 MVA at bus 173051 [TDLONGHA    110.00]
 System total absolute mismatch:                    0.14 MVA

 Case saved in file sme1.sav on THU, NOV 04 2021  17:06

 3807 diagonal and 8118 off-diagonal elements

 Duplicate model type: "ESST4B" at bus 958051 machine "1"
 RECORD IGNORED:
 958051	'ESST4B'	1	0	15	15	5	-0.87	0	1	0	99	-99	0	9.3	0	11.63	0.113	0.124	0	/	/

 Machine is a wind machine - Model "ESST4B" cannot be attached

 Machine is a wind machine - Model "ESST4B" cannot be attached

 Machine is a wind machine - Model "GENSAL" cannot be attached

 Machine is a wind machine - Model "GENSAL" cannot be attached

 Machine is a wind machine - Model "HYGOV" cannot be attached

 Machine is a wind machine - Model "HYGOV" cannot be attached

 Machine is a wind machine - Model "PSS2A" cannot be attached

 Machine is a wind machine - Model "PSS2A" cannot be attached

 Input error detected at !
 955092	'ESST4B'	1	0	10.75	10.75	5	-0.87	0	1	0	99	-99	0	9.3	0	11.63	0.113	0.124	0	/	/					
        !

 RECORD IGNORED:
 955091	'PSS2A'	1	1	0	3	0	5	1	2.5	2.5	0	2.5	0	2.5	0.39	1	0	0.1	6.5	0.44	0.08					

 Machine is a wind machine - Model "EXAC4" cannot be attached

 Machine is a wind machine - Model "GENSAL" cannot be attached

 Machine is a wind machine - Model "HYGOV" cannot be attached

 Machine is a wind machine - Model "PSS2A" cannot be attached

 Machine is a wind machine - Model "ESST4B" cannot be attached

 Machine is a wind machine - Model "GENSAL" cannot be attached

 Machine is a wind machine - Model "HYGOV" cannot be attached

 Machine is a wind machine - Model "PSS2A" cannot be attached

 Duplicate model type: "ESST4B" at bus 916095 machine "1"
 RECORD IGNORED:
 916095	'ESST4B'	1	0	10.75	10.75	5	-0.87	0	1	0	99	-99	0	9.3	0	11.63	0.113	0.124	0	/

 Duplicate model type: "ESST4B" at bus 919126 machine "1"
 RECORD IGNORED:
 919126	'ESST4B'	1	0	10.75	10.75	5	-0.87	0	1	0	99	-99	0	9.3	0	11.63	0.113	0.124	0	/

 Duplicate model type: "GENSAL" at bus 919126 machine "1"
 RECORD IGNORED:
 919126	'GENSAL'	1	6.6	0.05	0.155	2	0	1.13	0.734	0.26	0.23	0.104	0.194	0.685	/	/

 Duplicate model type: "HYGOV" at bus 919126 machine "1"
 RECORD IGNORED:
 919126	'HYGOV'	1	0.06	0.4	3	0.099	0.4	0.15	1	0.1	1.35	1.4	0.1	0.1	/	/

 Duplicate model type: "PSS2A" at bus 919126 machine "1"
 RECORD IGNORED:
 919126	'PSS2A'	1	1	0	3	0	5	1	2.5	2.5	0	2.5	0	2.5	0.39	1	0	0.1	6.5	0.44	0.08	0.2	0.98	0.1	-0.1	/

 Duplicate model type: "ESST4B" at bus 950107 machine "1"
 RECORD IGNORED:
 950107	'ESST4B'	1	0	10.75	10.75	5	-0.87	0	1	0	99	-99	0	9.3	0	11.63	0.113	0.124	0	/

 Duplicate model type: "GENSAL" at bus 950107 machine "1"
 RECORD IGNORED:
 950107	'GENSAL'	1	6.6	0.05	0.155	2	0	1.13	0.734	0.26	0.23	0.104	0.194	0.685	/	/

 Duplicate model type: "HYGOV" at bus 950107 machine "1"
 RECORD IGNORED:
 950107	'HYGOV'	1	0.06	0.4	3	0.099	0.4	0.15	1	0.1	1.35	1.4	0.1	0.1	/	/

 Duplicate model type: "PSS2A" at bus 950107 machine "1"
 RECORD IGNORED:
 950107	'PSS2A'	1	1	0	3	0	5	1	2.5	2.5	0	2.5	0	2.5	0.39	1	0	0.1	6.5	0.44	0.08	0.2	0.98	0.1	-0.1	/

 Machine is a wind machine - Model "ESST4B" cannot be attached

 Machine is a wind machine - Model "GENSAL" cannot be attached

 Machine is a wind machine - Model "HYGOV" cannot be attached

 Machine is a wind machine - Model "PSS2A" cannot be attached

 Machine is a wind machine - Model "ESST4B" cannot be attached

 Machine is a wind machine - Model "GENSAL" cannot be attached

 Machine is a wind machine - Model "HYGOV" cannot be attached

 Machine is a wind machine - Model "PSS2A" cannot be attached

 Machine is a wind machine - Model "ESST4B" cannot be attached

 Machine is a wind machine - Model "GENSAL" cannot be attached

 Machine is a wind machine - Model "HYGOV" cannot be attached

 Machine is a wind machine - Model "PSS2A" cannot be attached

 Machine is a wind machine - Model "ESST4B" cannot be attached

 Machine is a wind machine - Model "GENSAL" cannot be attached

 Machine is a wind machine - Model "HYGOV" cannot be attached

 Machine is a wind machine - Model "PSS2A" cannot be attached

 Machine is a wind machine - Model "ESST4B" cannot be attached

 Machine is a wind machine - Model "GENSAL" cannot be attached

 Machine is a wind machine - Model "HYGOV" cannot be attached

 Machine is a wind machine - Model "PSS2A" cannot be attached

 Machine is a wind machine - Model "ESST4B" cannot be attached

 Machine is a wind machine - Model "GENSAL" cannot be attached

 Machine is a wind machine - Model "HYGOV" cannot be attached

 Machine is a wind machine - Model "PSS2A" cannot be attached

 Machine is a wind machine - Model "ESST4B" cannot be attached

 Machine is a wind machine - Model "GENSAL" cannot be attached

 Machine is a wind machine - Model "HYGOV" cannot be attached

 Machine is a wind machine - Model "PSS2A" cannot be attached

 Machine is a wind machine - Model "ESST4B" cannot be attached

 Machine is a wind machine - Model "GENSAL" cannot be attached

 Machine is a wind machine - Model "HYGOV" cannot be attached

 Machine is a wind machine - Model "PSS2A" cannot be attached

 Machine is a wind machine - Model "ESST4B" cannot be attached

 Machine is a wind machine - Model "GENSAL" cannot be attached

 Machine is a wind machine - Model "HYGOV" cannot be attached

 Machine is a wind machine - Model "PSS2A" cannot be attached

 Machine is a wind machine - Model "ESST4B" cannot be attached

 Machine is a wind machine - Model "GENSAL" cannot be attached

 Machine is a wind machine - Model "HYGOV" cannot be attached

 Machine is a wind machine - Model "PSS2A" cannot be attached

 Machine is a wind machine - Model "ESST4B" cannot be attached

 Machine is a wind machine - Model "GENSAL" cannot be attached

 Machine is a wind machine - Model "HYGOV" cannot be attached

 Machine is a wind machine - Model "PSS2A" cannot be attached

 Machine is a wind machine - Model "ESST4B" cannot be attached

 Machine is a wind machine - Model "GENSAL" cannot be attached

 Machine is a wind machine - Model "HYGOV" cannot be attached

 Machine is a wind machine - Model "PSS2A" cannot be attached

 Machine is a wind machine - Model "ESST4B" cannot be attached

 Machine is a wind machine - Model "GENSAL" cannot be attached

 Machine is a wind machine - Model "HYGOV" cannot be attached

 Machine is a wind machine - Model "PSS2A" cannot be attached

 Machine is a wind machine - Model "ESST4B" cannot be attached

 Machine is a wind machine - Model "GENSAL" cannot be attached

 Machine is a wind machine - Model "HYGOV" cannot be attached

 Machine is a wind machine - Model "PSS2A" cannot be attached

 Machine is a wind machine - Model "ESST4B" cannot be attached

 Machine is a wind machine - Model "GENSAL" cannot be attached

 Machine is a wind machine - Model "HYGOV" cannot be attached

 Machine is a wind machine - Model "PSS2A" cannot be attached

 Machine is a wind machine - Model "ESST4B" cannot be attached

 Machine is a wind machine - Model "GENSAL" cannot be attached

 Machine is a wind machine - Model "HYGOV" cannot be attached

 Machine is a wind machine - Model "PSS2A" cannot be attached

 Machine is a wind machine - Model "ESST4B" cannot be attached

 Machine is a wind machine - Model "GENSAL" cannot be attached

 Machine is a wind machine - Model "HYGOV" cannot be attached

 Machine is a wind machine - Model "PSS2A" cannot be attached

 Machine is a wind machine - Model "ESST4B" cannot be attached

 Machine is a wind machine - Model "GENSAL" cannot be attached

 Machine is a wind machine - Model "HYGOV" cannot be attached

 Machine is a wind machine - Model "PSS2A" cannot be attached

 Machine is a wind machine - Model "ESST4B" cannot be attached

 Machine is a wind machine - Model "GENSAL" cannot be attached

 Machine is a wind machine - Model "HYGOV" cannot be attached

 Machine is a wind machine - Model "PSS2A" cannot be attached

 Machine is a wind machine - Model "ESST4B" cannot be attached

 Machine is a wind machine - Model "GENSAL" cannot be attached

 Machine is a wind machine - Model "HYGOV" cannot be attached

 Machine is a wind machine - Model "PSS2A" cannot be attached

 Machine is a wind machine - Model "ESST4B" cannot be attached

 Machine is a wind machine - Model "GENSAL" cannot be attached

 Machine is a wind machine - Model "HYGOV" cannot be attached

 Machine is a wind machine - Model "PSS2A" cannot be attached

 Machine is a wind machine - Model "ESST4B" cannot be attached

 Machine is a wind machine - Model "GENSAL" cannot be attached

 Machine is a wind machine - Model "HYGOV" cannot be attached

 Machine is a wind machine - Model "PSS2A" cannot be attached

 Machine is a wind machine - Model "ESST4B" cannot be attached

 Machine is a wind machine - Model "GENSAL" cannot be attached

 Machine is a wind machine - Model "HYGOV" cannot be attached

 Machine is a wind machine - Model "PSS2A" cannot be attached

 Machine is a wind machine - Model "ESST4B" cannot be attached

 Machine is a wind machine - Model "GENSAL" cannot be attached

 Machine is a wind machine - Model "HYGOV" cannot be attached

 Machine is a wind machine - Model "PSS2A" cannot be attached

 Machine is a wind machine - Model "ESST4B" cannot be attached

 Machine is a wind machine - Model "GENSAL" cannot be attached

 Machine is a wind machine - Model "HYGOV" cannot be attached

 Machine is a wind machine - Model "PSS2A" cannot be attached

 Machine is a wind machine - Model "ESST4B" cannot be attached

 Machine is a wind machine - Model "GENSAL" cannot be attached

 Machine is a wind machine - Model "HYGOV" cannot be attached

 Machine is a wind machine - Model "PSS2A" cannot be attached

 Machine is a wind machine - Model "ESST4B" cannot be attached

 Machine is a wind machine - Model "GENSAL" cannot be attached

 Machine is a wind machine - Model "HYGOV" cannot be attached

 Machine is a wind machine - Model "PSS2A" cannot be attached

 Machine is a wind machine - Model "ESST4B" cannot be attached

 Machine is a wind machine - Model "GENSAL" cannot be attached

 Machine is a wind machine - Model "HYGOV" cannot be attached

 Machine is a wind machine - Model "PSS2A" cannot be attached

 Machine is a wind machine - Model "ESST4B" cannot be attached

 Machine is a wind machine - Model "GENSAL" cannot be attached

 Machine is a wind machine - Model "HYGOV" cannot be attached

 Machine is a wind machine - Model "PSS2A" cannot be attached

 Machine is a wind machine - Model "ESST4B" cannot be attached

 Machine is a wind machine - Model "GENSAL" cannot be attached

 Machine is a wind machine - Model "HYGOV" cannot be attached

 Machine is a wind machine - Model "PSS2A" cannot be attached

 Machine is a wind machine - Model "ESST4B" cannot be attached

 Machine is a wind machine - Model "GENSAL" cannot be attached

 Machine is a wind machine - Model "HYGOV" cannot be attached

 Machine is a wind machine - Model "PSS2A" cannot be attached

 Machine is a wind machine - Model "ESST4B" cannot be attached

 Machine is a wind machine - Model "GENSAL" cannot be attached

 Machine is a wind machine - Model "HYGOV" cannot be attached

 Machine is a wind machine - Model "PSS2A" cannot be attached

 Machine is a wind machine - Model "ESST4B" cannot be attached

 Machine is a wind machine - Model "GENSAL" cannot be attached

 Machine is a wind machine - Model "HYGOV" cannot be attached

 Machine is a wind machine - Model "PSS2A" cannot be attached

 Machine is a wind machine - Model "ESST4B" cannot be attached

 Machine is a wind machine - Model "GENSAL" cannot be attached

 Machine is a wind machine - Model "HYGOV" cannot be attached

 Machine is a wind machine - Model "PSS2A" cannot be attached

 Machine is a wind machine - Model "ESST4B" cannot be attached

 Machine is a wind machine - Model "GENSAL" cannot be attached

 Machine is a wind machine - Model "HYGOV" cannot be attached

 Machine is a wind machine - Model "PSS2A" cannot be attached

 Machine is a wind machine - Model "ESST4B" cannot be attached

 Machine is a wind machine - Model "GENSAL" cannot be attached

 Machine is a wind machine - Model "HYGOV" cannot be attached

 Machine is a wind machine - Model "PSS2A" cannot be attached

 Machine is a wind machine - Model "ESST4B" cannot be attached

 Machine is a wind machine - Model "GENSAL" cannot be attached

 Machine is a wind machine - Model "HYGOV" cannot be attached

 Machine is a wind machine - Model "PSS2A" cannot be attached

 Machine is a wind machine - Model "ESST4B" cannot be attached

 Machine is a wind machine - Model "GENSAL" cannot be attached

 Machine is a wind machine - Model "HYGOV" cannot be attached

 Machine is a wind machine - Model "PSS2A" cannot be attached

 Machine is a wind machine - Model "ESST4B" cannot be attached

 Machine is a wind machine - Model "GENSAL" cannot be attached

 Machine is a wind machine - Model "HYGOV" cannot be attached

 Machine is a wind machine - Model "PSS2A" cannot be attached

 Machine is a wind machine - Model "ESST4B" cannot be attached

 Machine is a wind machine - Model "GENSAL" cannot be attached

 Machine is a wind machine - Model "HYGOV" cannot be attached

 Machine is a wind machine - Model "PSS2A" cannot be attached

 Machine is a wind machine - Model "ESST4B" cannot be attached

 Machine is a wind machine - Model "GENSAL" cannot be attached

 Machine is a wind machine - Model "HYGOV" cannot be attached

 Machine is a wind machine - Model "PSS2A" cannot be attached

 Machine is a wind machine - Model "ESST4B" cannot be attached

 Machine is a wind machine - Model "GENSAL" cannot be attached

 Machine is a wind machine - Model "HYGOV" cannot be attached

 Machine is a wind machine - Model "PSS2A" cannot be attached

 Machine is a wind machine - Model "ESST4B" cannot be attached

 Machine is a wind machine - Model "GENSAL" cannot be attached

 Machine is a wind machine - Model "HYGOV" cannot be attached

 Machine is a wind machine - Model "PSS2A" cannot be attached

 Machine is a wind machine - Model "ESST4B" cannot be attached

 Machine is a wind machine - Model "GENSAL" cannot be attached

 Machine is a wind machine - Model "HYGOV" cannot be attached

 Machine is a wind machine - Model "PSS2A" cannot be attached

 Machine is a wind machine - Model "ESST4B" cannot be attached

 Machine is a wind machine - Model "GENSAL" cannot be attached

 Machine is a wind machine - Model "HYGOV" cannot be attached

 Machine is a wind machine - Model "PSS2A" cannot be attached

 Machine is a wind machine - Model "ESST4B" cannot be attached

 Machine is a wind machine - Model "GENSAL" cannot be attached

 Machine is a wind machine - Model "HYGOV" cannot be attached

 Machine is a wind machine - Model "PSS2A" cannot be attached

 Machine is a wind machine - Model "ESST4B" cannot be attached

 Machine is a wind machine - Model "GENSAL" cannot be attached

 Machine is a wind machine - Model "HYGOV" cannot be attached

 Machine is a wind machine - Model "PSS2A" cannot be attached

 Machine is a wind machine - Model "ESST4B" cannot be attached

 Machine is a wind machine - Model "GENSAL" cannot be attached

 Machine is a wind machine - Model "HYGOV" cannot be attached

 Machine is a wind machine - Model "PSS2A" cannot be attached

 Machine is a wind machine - Model "ESST4B" cannot be attached

 Machine is a wind machine - Model "GENSAL" cannot be attached

 Machine is a wind machine - Model "HYGOV" cannot be attached

 Machine is a wind machine - Model "PSS2A" cannot be attached

 Machine is a wind machine - Model "ESST4B" cannot be attached

 Machine is a wind machine - Model "GENSAL" cannot be attached

 Machine is a wind machine - Model "HYGOV" cannot be attached

 Machine is a wind machine - Model "PSS2A" cannot be attached

 Machine is a wind machine - Model "ESST4B" cannot be attached

 Machine is a wind machine - Model "GENSAL" cannot be attached

 Machine is a wind machine - Model "HYGOV" cannot be attached

 Machine is a wind machine - Model "PSS2A" cannot be attached

 Machine is a wind machine - Model "ESST4B" cannot be attached

 Machine is a wind machine - Model "GENSAL" cannot be attached

 Machine is a wind machine - Model "HYGOV" cannot be attached

 Machine is a wind machine - Model "PSS2A" cannot be attached

 Machine is a wind machine - Model "ESST4B" cannot be attached

 Machine is a wind machine - Model "GENSAL" cannot be attached

 Machine is a wind machine - Model "HYGOV" cannot be attached

 Machine is a wind machine - Model "PSS2A" cannot be attached

 Machine is a wind machine - Model "ESST4B" cannot be attached

 Machine is a wind machine - Model "GENSAL" cannot be attached

 Machine is a wind machine - Model "HYGOV" cannot be attached

 Machine is a wind machine - Model "PSS2A" cannot be attached

 Machine is a wind machine - Model "ESST4B" cannot be attached

 Machine is a wind machine - Model "GENSAL" cannot be attached

 Machine is a wind machine - Model "HYGOV" cannot be attached

 Machine is a wind machine - Model "PSS2A" cannot be attached

 Machine is a wind machine - Model "EXAC4" cannot be attached

 Machine is a wind machine - Model "GENSAL" cannot be attached

 Machine is a wind machine - Model "HYGOV" cannot be attached

 Machine is a wind machine - Model "PSS2A" cannot be attached

 Machine is a wind machine - Model "ESST4B" cannot be attached

 Machine is a wind machine - Model "GENSAL" cannot be attached

 Machine is a wind machine - Model "HYGOV" cannot be attached

 Machine is a wind machine - Model "PSS2A" cannot be attached

 Machine is a wind machine - Model "ESST4B" cannot be attached

 Machine is a wind machine - Model "GENSAL" cannot be attached

 Machine is a wind machine - Model "HYGOV" cannot be attached

 Machine is a wind machine - Model "PSS2A" cannot be attached

 Machine is a wind machine - Model "ESST4B" cannot be attached

 Machine is a wind machine - Model "GENSAL" cannot be attached

 Machine is a wind machine - Model "HYGOV" cannot be attached

 Machine is a wind machine - Model "PSS2A" cannot be attached

 Machine is a wind machine - Model "ESST4B" cannot be attached

 Machine is a wind machine - Model "GENSAL" cannot be attached

 Machine is a wind machine - Model "HYGOV" cannot be attached

 Machine is a wind machine - Model "PSS2A" cannot be attached

 Machine is a wind machine - Model "ESST4B" cannot be attached

 Machine is a wind machine - Model "GENSAL" cannot be attached

 Machine is a wind machine - Model "HYGOV" cannot be attached

 Machine is a wind machine - Model "PSS2A" cannot be attached

 Machine is a wind machine - Model "ESST4B" cannot be attached

 Machine is a wind machine - Model "GENSAL" cannot be attached

 Machine is a wind machine - Model "HYGOV" cannot be attached

 Machine is a wind machine - Model "PSS2A" cannot be attached

 Machine is a wind machine - Model "ESST4B" cannot be attached

 Machine is a wind machine - Model "GENSAL" cannot be attached

 Machine is a wind machine - Model "HYGOV" cannot be attached

 Machine is a wind machine - Model "PSS2A" cannot be attached

 Machine is a wind machine - Model "ESST4B" cannot be attached

 Machine is a wind machine - Model "GENSAL" cannot be attached

 Machine is a wind machine - Model "HYGOV" cannot be attached

 Machine is a wind machine - Model "PSS2A" cannot be attached

 Machine is a wind machine - Model "ESST4B" cannot be attached

 Machine is a wind machine - Model "GENROU" cannot be attached

 Machine is a wind machine - Model "TGOV1" cannot be attached

 Machine is a wind machine - Model "PSS2A" cannot be attached

 Machine is a wind machine - Model "EXAC4" cannot be attached

 Machine is a wind machine - Model "GENSAL" cannot be attached

 Machine is a wind machine - Model "HYGOV" cannot be attached

 Machine is a wind machine - Model "PSS2A" cannot be attached

 Machine is a wind machine - Model "EXAC4" cannot be attached

 Machine is a wind machine - Model "GENSAL" cannot be attached

 Machine is a wind machine - Model "HYGOV" cannot be attached

 Machine is a wind machine - Model "PSS2A" cannot be attached

 Machine is a wind machine - Model "ESST4B" cannot be attached

 Machine is a wind machine - Model "GENROU" cannot be attached

 Machine is a wind machine - Model "TGOV1" cannot be attached

 Machine is a wind machine - Model "PSS2A" cannot be attached

 Machine is a wind machine - Model "ESST4B" cannot be attached

 Machine is a wind machine - Model "GENSAL" cannot be attached

 Machine is a wind machine - Model "HYGOV" cannot be attached

 Machine is a wind machine - Model "PSS2A" cannot be attached

 Machine is a wind machine - Model "ESST4B" cannot be attached

 Machine is a wind machine - Model "GENSAL" cannot be attached

 Machine is a wind machine - Model "HYGOV" cannot be attached

 Machine is a wind machine - Model "PSS2A" cannot be attached

 Machine is a wind machine - Model "ESST4B" cannot be attached

 Machine is a wind machine - Model "GENSAL" cannot be attached

 Machine is a wind machine - Model "HYGOV" cannot be attached

 Machine is a wind machine - Model "PSS2A" cannot be attached

 Machine is a wind machine - Model "ESST4B" cannot be attached

 Machine is a wind machine - Model "GENSAL" cannot be attached

 Machine is a wind machine - Model "HYGOV" cannot be attached

 Machine is a wind machine - Model "PSS2A" cannot be attached

 Machine is a wind machine - Model "ESST4B" cannot be attached

 Machine is a wind machine - Model "GENSAL" cannot be attached

 Machine is a wind machine - Model "HYGOV" cannot be attached

 Machine is a wind machine - Model "PSS2A" cannot be attached

 Machine is a wind machine - Model "ESST4B" cannot be attached

 Machine is a wind machine - Model "GENSAL" cannot be attached

 Machine is a wind machine - Model "HYGOV" cannot be attached

 Machine is a wind machine - Model "PSS2A" cannot be attached

 Machine is a wind machine - Model "ESST4B" cannot be attached

 Machine is a wind machine - Model "GENSAL" cannot be attached

 Machine is a wind machine - Model "HYGOV" cannot be attached

 Machine is a wind machine - Model "PSS2A" cannot be attached

 Machine is a wind machine - Model "ESST4B" cannot be attached

 Machine is a wind machine - Model "GENSAL" cannot be attached

 Machine is a wind machine - Model "HYGOV" cannot be attached

 Machine is a wind machine - Model "PSS2A" cannot be attached

 Machine is a wind machine - Model "ESST4B" cannot be attached

 Machine is a wind machine - Model "ESST4B" cannot be attached

 Machine is a wind machine - Model "ESST4B" cannot be attached

 Machine is a wind machine - Model "ESST4B" cannot be attached

 Machine is a wind machine - Model "GENSAL" cannot be attached

 Machine is a wind machine - Model "GENSAL" cannot be attached

 Machine is a wind machine - Model "GENSAL" cannot be attached

 Machine is a wind machine - Model "GENSAL" cannot be attached

 Machine is a wind machine - Model "HYGOV" cannot be attached

 Machine is a wind machine - Model "HYGOV" cannot be attached

 Machine is a wind machine - Model "HYGOV" cannot be attached

 Machine is a wind machine - Model "HYGOV" cannot be attached

 Machine is a wind machine - Model "PSS2A" cannot be attached

 Machine is a wind machine - Model "PSS2A" cannot be attached

 Machine is a wind machine - Model "PSS2A" cannot be attached

 Machine is a wind machine - Model "PSS2A" cannot be attached

 Duplicate model type: "ESST4B" at bus 931022 machine "1"
 RECORD IGNORED:
 931022	'ESST4B'	1	0	15	15	5	-0.87	0	1	0	99	-99	0	9.3	0	11.63	0.113	0.124	0	/	/	0	0	0	0	0	0	TRUE

 Duplicate model type: "ESST4B" at bus 955022 machine "1"
 RECORD IGNORED:
 955022	'ESST4B'	1	0	10.75	10.75	5	-0.87	0	1	0	99	-99	0	9.3	0	11.63	0.113	0.124	0	/	/	0	0	0	0	0	0	TRUE

 Duplicate model type: "ESST4B" at bus 954092 machine "1"
 RECORD IGNORED:
 954092	'ESST4B'	1	0	15	15	5	-0.87	0	1	0	99	-99	0	9.3	0	11.63	0.113	0.124	0	/	/	0	0	0	0	0	0	TRUE

 Duplicate model type: "ESST4B" at bus 916083 machine "1"
 RECORD IGNORED:
 916083	'ESST4B'	1	0	10.75	10.75	5	-0.87	0	1	0	99	-99	0	9.3	0	11.63	0.113	0.124	0	/	0	0	0	0	0	0	0	TRUE

 Duplicate model type: "ESST4B" at bus 916083 machine "1"
 RECORD IGNORED:
 916083	'ESST4B'	1	0	10.75	10.75	5	-0.87	0	1	0	99	-99	0	9.3	0	11.63	0.113	0.124	0	/	0	0	0	0	0	0	0	TRUE

 Duplicate model type: "GENSAL" at bus 931022 machine "1"
 RECORD IGNORED:
 931022	'GENSAL'	1	6.6	0.05	0.155	2	0	1.13	0.734	0.26	0.28	0.104	0.194	0.685	/	/

 Duplicate model type: "GENSAL" at bus 955022 machine "1"
 RECORD IGNORED:
 955022	'GENSAL'	1	6.6	0.05	0.155	2	0	1.13	0.734	0.26	0.22	0.104	0.194	0.685	/	/

 Duplicate model type: "GENSAL" at bus 954092 machine "1"
 RECORD IGNORED:
 954092	'GENSAL'	1	6.6	0.05	0.155	2	0	1.13	0.734	0.26	0.22	0.104	0.194	0.685	/	/

 Duplicate model type: "GENSAL" at bus 916083 machine "1"
 RECORD IGNORED:
 916083	'GENSAL'	1	6.6	0.05	0.155	2	0	1.13	0.734	0.26	0.23	0.104	0.194	0.685	/	/

 Duplicate model type: "GENSAL" at bus 916083 machine "1"
 RECORD IGNORED:
 916083	'GENSAL'	1	6.6	0.05	0.155	2	0	1.13	0.734	0.26	0.23	0.104	0.194	0.685	/	/

 Duplicate model type: "HYGOV" at bus 931022 machine "1"
 RECORD IGNORED:
 931022	'HYGOV'	1	0.06	0.4	3	0.099	0.4	0.15	1	0.1	1.35	1.4	0.1	0.1	/	/	0	0	0	0	0	0	0	0	0	0	0

 Duplicate model type: "HYGOV" at bus 955022 machine "1"
 RECORD IGNORED:
 955022	'HYGOV'	1	0.06	0.4	3	0.099	0.4	0.15	1	0.1	1.35	1.4	0.1	0.1	/	/	0	0	0	0	0	0	0	0	0	0	0

 Duplicate model type: "HYGOV" at bus 954092 machine "1"
 RECORD IGNORED:
 954092	'HYGOV'	1	0.06	0.4	3	0.099	0.4	0.15	1	0.1	1.35	1.4	0.1	0.1	/	/	0	0	0	0	0	0	0	0	0	0	0

 Duplicate model type: "HYGOV" at bus 916083 machine "1"
 RECORD IGNORED:
 916083	'HYGOV'	1	0.06	0.4	3	0.099	0.4	0.15	1	0.1	1.35	1.4	0.1	0.1	/	/	0	0	0	0	0	0	0	0	0	0	0

 Duplicate model type: "HYGOV" at bus 916083 machine "1"
 RECORD IGNORED:
 916083	'HYGOV'	1	0.06	0.4	3	0.099	0.4	0.15	1	0.1	1.35	1.4	0.1	0.1	/	/	0	0	0	0	0	0	0	0	0	0	0

 Duplicate model type: "PSS2A" at bus 931022 machine "1"
 RECORD IGNORED:
 931022	'PSS2A'	1	1	0	3	0	5	1	2.5	2.5	0	2.5	0	2.5	0.39	1	0	0.1	6.5	0.44	0.08	0.2	0.98	0.1	-0.1	/	0

 Duplicate model type: "PSS2A" at bus 955022 machine "1"
 RECORD IGNORED:
 955022	'PSS2A'	1	1	0	3	0	5	1	2.5	2.5	0	2.5	0	2.5	0.39	1	0	0.1	6.5	0.44	0.08	0.2	0.98	0.1	-0.1	/	0

 Duplicate model type: "PSS2A" at bus 954092 machine "1"
 RECORD IGNORED:
 954092	'PSS2A'	1	1	0	3	0	5	1	2.5	2.5	0	2.5	0	2.5	0.39	1	0	0.1	6.5	0.44	0.08	0.2	0.98	0.1	-0.1	/	0

 Duplicate model type: "PSS2A" at bus 916083 machine "1"
 RECORD IGNORED:
 916083	'PSS2A'	1	1	0	3	0	5	1	2.5	2.5	0	2.5	0	2.5	0.39	1	0	0.1	6.5	0.44	0.08	0.2	0.98	0.1	-0.1	/	0

 Duplicate model type: "PSS2A" at bus 916083 machine "1"
 RECORD IGNORED:
 916083	'PSS2A'	1	1	0	3	0	5	1	2.5	2.5	0	2.5	0	2.5	0.39	1	0	0.1	6.5	0.44	0.08	0.2	0.98	0.1	-0.1	/	0
 Out of file data--switch to terminal input mode

 Generator models use:
  CONS        1- 10958
  STATES      1-  4601

 Stabilizer models use:
  CONS    10959- 25867
  STATES   4602- 18633
  VARS        1-  3508
  ICONS       1-  5262

 Excitation System models use:
  CONS    25868- 40060
  STATES  18634- 22038
  ICONS    5263-  5264

 Turbine Governor models use:
  CONS    40061- 49649
  STATES  22039- 25182
  VARS     3509-  5053

 Wind Generator models use:
  CONS    49650- 50881
  STATES  25183- 25446
  VARS     5054-  5405
  ICONS    5265-  5352

 Wind Electrical models use:
  CONS    50882- 54841
  STATES  25447- 25974
  VARS     5406-  6197
  ICONS    5353-  5880

 Wind Auxiliary models use:
  CONS    54842- 57217
  STATES  25975- 26590
  VARS     6198-  6989
  ICONS    5881-  6496


 SUMMARY OF MODELS READ:

 GENS:  GENROU           GENSAL
         211              667

 STABS: PSS2A
         877

 EXSYS: EXAC4            ESST1A           ESST4B
         100                1              775

 GOVS:  TGOV1            GAST             HYGOV
         157               54              667

 USER:  USRMDL
         264

 NEXT AVAILABLE ADDRESSES ARE:
    CON  STATE    VAR   ICON
  57218  26591   6990   6497

 Only PSS/E supplied models in case. Compilation is not required

 CHANNEL    1 WITH IDENTIFIER "ANGLE_HOABINH_H1" ADDED

 CHANNEL    2 WITH IDENTIFIER "ANGLE_SONLA_H1" ADDED

 CHANNEL    3 WITH IDENTIFIER "VOLTAGE_LAICHAU" ADDED

 CHANNEL    4 WITH IDENTIFIER "VOLTAGE_TDLAICHAU" ADDED

 CHANNEL    5 WITH IDENTIFIER "BSFREQ_LAICHAU" ADDED

 CHANNEL    6 WITH IDENTIFIER "BSFREQ_TDLAICHAU" ADDED

 Snapshot at TIME = 0.0 saved in file ssn11.snp on THU, NOV 04 2021  17:06

 3807 diagonal and 8118 off-diagonal elements
 REPCAU1 AT BUS  916038 MACHINE '1 ': REMOTE BUS NOT SPECIFIED OR NOT FOUND. WILL CONTROL LOCAL BUS
 REPCAU1 AT BUS  991087 MACHINE '1 ': REMOTE BUS NOT SPECIFIED OR NOT FOUND. WILL CONTROL LOCAL BUS
 REPCAU1 AT BUS  971081 MACHINE '1 ': REMOTE BUS NOT SPECIFIED OR NOT FOUND. WILL CONTROL LOCAL BUS
 REPCAU1 AT BUS  971082 MACHINE '1 ': REMOTE BUS NOT SPECIFIED OR NOT FOUND. WILL CONTROL LOCAL BUS
 REPCAU1 AT BUS  971085 MACHINE '1 ': REMOTE BUS NOT SPECIFIED OR NOT FOUND. WILL CONTROL LOCAL BUS
 REPCAU1 AT BUS  971102 MACHINE '1 ': REMOTE BUS NOT SPECIFIED OR NOT FOUND. WILL CONTROL LOCAL BUS
 REPCAU1 AT BUS  971111 MACHINE '1 ': REMOTE BUS NOT SPECIFIED OR NOT FOUND. WILL CONTROL LOCAL BUS
 REPCAU1 AT BUS  971112 MACHINE '1 ': REMOTE BUS NOT SPECIFIED OR NOT FOUND. WILL CONTROL LOCAL BUS
 REPCAU1 AT BUS  971113 MACHINE '1 ': REMOTE BUS NOT SPECIFIED OR NOT FOUND. WILL CONTROL LOCAL BUS
 REPCAU1 AT BUS  971121 MACHINE '1 ': REMOTE BUS NOT SPECIFIED OR NOT FOUND. WILL CONTROL LOCAL BUS
 REPCAU1 AT BUS  971122 MACHINE '1 ': REMOTE BUS NOT SPECIFIED OR NOT FOUND. WILL CONTROL LOCAL BUS
 REPCAU1 AT BUS  971123 MACHINE '1 ': REMOTE BUS NOT SPECIFIED OR NOT FOUND. WILL CONTROL LOCAL BUS
 REPCAU1 AT BUS  971124 MACHINE '1 ': REMOTE BUS NOT SPECIFIED OR NOT FOUND. WILL CONTROL LOCAL BUS
 REPCAU1 AT BUS  971125 MACHINE '1 ': REMOTE BUS NOT SPECIFIED OR NOT FOUND. WILL CONTROL LOCAL BUS
 REPCAU1 AT BUS  971126 MACHINE '1 ': REMOTE BUS NOT SPECIFIED OR NOT FOUND. WILL CONTROL LOCAL BUS
 REPCAU1 AT BUS  971131 MACHINE '1 ': REMOTE BUS NOT SPECIFIED OR NOT FOUND. WILL CONTROL LOCAL BUS
 REPCAU1 AT BUS  971132 MACHINE '1 ': REMOTE BUS NOT SPECIFIED OR NOT FOUND. WILL CONTROL LOCAL BUS
 REPCAU1 AT BUS  971133 MACHINE '1 ': REMOTE BUS NOT SPECIFIED OR NOT FOUND. WILL CONTROL LOCAL BUS
 REPCAU1 AT BUS  971141 MACHINE '1 ': REMOTE BUS NOT SPECIFIED OR NOT FOUND. WILL CONTROL LOCAL BUS
 REPCAU1 AT BUS  971142 MACHINE '1 ': REMOTE BUS NOT SPECIFIED OR NOT FOUND. WILL CONTROL LOCAL BUS
 REPCAU1 AT BUS  971143 MACHINE '1 ': REMOTE BUS NOT SPECIFIED OR NOT FOUND. WILL CONTROL LOCAL BUS
 REPCAU1 AT BUS  971144 MACHINE '1 ': REMOTE BUS NOT SPECIFIED OR NOT FOUND. WILL CONTROL LOCAL BUS
 REPCAU1 AT BUS  971145 MACHINE '1 ': REMOTE BUS NOT SPECIFIED OR NOT FOUND. WILL CONTROL LOCAL BUS
 REPCAU1 AT BUS  971151 MACHINE '1 ': REMOTE BUS NOT SPECIFIED OR NOT FOUND. WILL CONTROL LOCAL BUS
 REPCAU1 AT BUS  971152 MACHINE '1 ': REMOTE BUS NOT SPECIFIED OR NOT FOUND. WILL CONTROL LOCAL BUS
 REPCAU1 AT BUS  971153 MACHINE '1 ': REMOTE BUS NOT SPECIFIED OR NOT FOUND. WILL CONTROL LOCAL BUS
 REPCAU1 AT BUS  971154 MACHINE '1 ': REMOTE BUS NOT SPECIFIED OR NOT FOUND. WILL CONTROL LOCAL BUS
 REPCAU1 AT BUS  971155 MACHINE '1 ': REMOTE BUS NOT SPECIFIED OR NOT FOUND. WILL CONTROL LOCAL BUS
 REPCAU1 AT BUS  971156 MACHINE '1 ': REMOTE BUS NOT SPECIFIED OR NOT FOUND. WILL CONTROL LOCAL BUS
 REPCAU1 AT BUS  971161 MACHINE '1 ': REMOTE BUS NOT SPECIFIED OR NOT FOUND. WILL CONTROL LOCAL BUS
 REPCAU1 AT BUS  971162 MACHINE '1 ': REMOTE BUS NOT SPECIFIED OR NOT FOUND. WILL CONTROL LOCAL BUS
 REPCAU1 AT BUS  971163 MACHINE '1 ': REMOTE BUS NOT SPECIFIED OR NOT FOUND. WILL CONTROL LOCAL BUS
 REPCAU1 AT BUS  971164 MACHINE '1 ': REMOTE BUS NOT SPECIFIED OR NOT FOUND. WILL CONTROL LOCAL BUS
 REPCAU1 AT BUS  971165 MACHINE '1 ': REMOTE BUS NOT SPECIFIED OR NOT FOUND. WILL CONTROL LOCAL BUS
 REPCAU1 AT BUS  971166 MACHINE '1 ': REMOTE BUS NOT SPECIFIED OR NOT FOUND. WILL CONTROL LOCAL BUS
 REPCAU1 AT BUS  971168 MACHINE '1 ': REMOTE BUS NOT SPECIFIED OR NOT FOUND. WILL CONTROL LOCAL BUS
 REPCAU1 AT BUS  971169 MACHINE '1 ': REMOTE BUS NOT SPECIFIED OR NOT FOUND. WILL CONTROL LOCAL BUS
 REPCAU1 AT BUS  971171 MACHINE '1 ': REMOTE BUS NOT SPECIFIED OR NOT FOUND. WILL CONTROL LOCAL BUS
 REPCAU1 AT BUS  971172 MACHINE '1 ': REMOTE BUS NOT SPECIFIED OR NOT FOUND. WILL CONTROL LOCAL BUS
 REPCAU1 AT BUS  971177 MACHINE '1 ': REMOTE BUS NOT SPECIFIED OR NOT FOUND. WILL CONTROL LOCAL BUS
 REPCAU1 AT BUS  971183 MACHINE '1 ': REMOTE BUS NOT SPECIFIED OR NOT FOUND. WILL CONTROL LOCAL BUS
 REPCAU1 AT BUS  972111 MACHINE '1 ': REMOTE BUS NOT SPECIFIED OR NOT FOUND. WILL CONTROL LOCAL BUS
 REPCAU1 AT BUS  972112 MACHINE '1 ': REMOTE BUS NOT SPECIFIED OR NOT FOUND. WILL CONTROL LOCAL BUS
 REPCAU1 AT BUS  972113 MACHINE '1 ': REMOTE BUS NOT SPECIFIED OR NOT FOUND. WILL CONTROL LOCAL BUS
 REPCAU1 AT BUS  972121 MACHINE '1 ': REMOTE BUS NOT SPECIFIED OR NOT FOUND. WILL CONTROL LOCAL BUS
 REPCAU1 AT BUS  972221 MACHINE '1 ': REMOTE BUS NOT SPECIFIED OR NOT FOUND. WILL CONTROL LOCAL BUS
 REPCAU1 AT BUS  972223 MACHINE '1 ': REMOTE BUS NOT SPECIFIED OR NOT FOUND. WILL CONTROL LOCAL BUS
 REPCAU1 AT BUS  972231 MACHINE '1 ': REMOTE BUS NOT SPECIFIED OR NOT FOUND. WILL CONTROL LOCAL BUS
 REPCAU1 AT BUS  972232 MACHINE '1 ': REMOTE BUS NOT SPECIFIED OR NOT FOUND. WILL CONTROL LOCAL BUS
 REPCAU1 AT BUS  972233 MACHINE '1 ': REMOTE BUS NOT SPECIFIED OR NOT FOUND. WILL CONTROL LOCAL BUS
 REPCAU1 AT BUS  972251 MACHINE '1 ': REMOTE BUS NOT SPECIFIED OR NOT FOUND. WILL CONTROL LOCAL BUS
 REPCAU1 AT BUS  972252 MACHINE '1 ': REMOTE BUS NOT SPECIFIED OR NOT FOUND. WILL CONTROL LOCAL BUS
 REPCAU1 AT BUS  972271 MACHINE '1 ': REMOTE BUS NOT SPECIFIED OR NOT FOUND. WILL CONTROL LOCAL BUS
 REPCAU1 AT BUS  972272 MACHINE '1 ': REMOTE BUS NOT SPECIFIED OR NOT FOUND. WILL CONTROL LOCAL BUS
 REPCAU1 AT BUS  972291 MACHINE '1 ': REMOTE BUS NOT SPECIFIED OR NOT FOUND. WILL CONTROL LOCAL BUS
 REPCAU1 AT BUS  972292 MACHINE '1 ': REMOTE BUS NOT SPECIFIED OR NOT FOUND. WILL CONTROL LOCAL BUS
 REPCAU1 AT BUS  972293 MACHINE '1 ': REMOTE BUS NOT SPECIFIED OR NOT FOUND. WILL CONTROL LOCAL BUS
 REPCAU1 AT BUS  972321 MACHINE '1 ': REMOTE BUS NOT SPECIFIED OR NOT FOUND. WILL CONTROL LOCAL BUS
 REPCAU1 AT BUS  972322 MACHINE '1 ': REMOTE BUS NOT SPECIFIED OR NOT FOUND. WILL CONTROL LOCAL BUS
 REPCAU1 AT BUS  972331 MACHINE '1 ': REMOTE BUS NOT SPECIFIED OR NOT FOUND. WILL CONTROL LOCAL BUS
 REPCAU1 AT BUS  972351 MACHINE '1 ': REMOTE BUS NOT SPECIFIED OR NOT FOUND. WILL CONTROL LOCAL BUS
 REPCAU1 AT BUS  972352 MACHINE '1 ': REMOTE BUS NOT SPECIFIED OR NOT FOUND. WILL CONTROL LOCAL BUS
 REPCAU1 AT BUS  972353 MACHINE '1 ': REMOTE BUS NOT SPECIFIED OR NOT FOUND. WILL CONTROL LOCAL BUS
 REPCAU1 AT BUS  972361 MACHINE '1 ': REMOTE BUS NOT SPECIFIED OR NOT FOUND. WILL CONTROL LOCAL BUS
 REPCAU1 AT BUS  972511 MACHINE '1 ': REMOTE BUS NOT SPECIFIED OR NOT FOUND. WILL CONTROL LOCAL BUS
 REPCAU1 AT BUS  972651 MACHINE '1 ': REMOTE BUS NOT SPECIFIED OR NOT FOUND. WILL CONTROL LOCAL BUS
 REPCAU1 AT BUS  972831 MACHINE '1 ': REMOTE BUS NOT SPECIFIED OR NOT FOUND. WILL CONTROL LOCAL BUS
 REPCAU1 AT BUS  972841 MACHINE '1 ': REMOTE BUS NOT SPECIFIED OR NOT FOUND. WILL CONTROL LOCAL BUS
 REPCAU1 AT BUS  973099 MACHINE '1 ': REMOTE BUS NOT SPECIFIED OR NOT FOUND. WILL CONTROL LOCAL BUS
 REPCAU1 AT BUS  973155 MACHINE '1 ': REMOTE BUS NOT SPECIFIED OR NOT FOUND. WILL CONTROL LOCAL BUS
 REPCAU1 AT BUS  974051 MACHINE '1 ': REMOTE BUS NOT SPECIFIED OR NOT FOUND. WILL CONTROL LOCAL BUS
 REPCAU1 AT BUS  974052 MACHINE '1 ': REMOTE BUS NOT SPECIFIED OR NOT FOUND. WILL CONTROL LOCAL BUS
 REPCAU1 AT BUS  974053 MACHINE '1 ': REMOTE BUS NOT SPECIFIED OR NOT FOUND. WILL CONTROL LOCAL BUS
 REPCAU1 AT BUS  974054 MACHINE '1 ': REMOTE BUS NOT SPECIFIED OR NOT FOUND. WILL CONTROL LOCAL BUS
 REPCAU1 AT BUS  974055 MACHINE '1 ': REMOTE BUS NOT SPECIFIED OR NOT FOUND. WILL CONTROL LOCAL BUS
 REPCAU1 AT BUS  974056 MACHINE '1 ': REMOTE BUS NOT SPECIFIED OR NOT FOUND. WILL CONTROL LOCAL BUS
 REPCAU1 AT BUS  974060 MACHINE '1 ': REMOTE BUS NOT SPECIFIED OR NOT FOUND. WILL CONTROL LOCAL BUS
 REPCAU1 AT BUS  974061 MACHINE '1 ': REMOTE BUS NOT SPECIFIED OR NOT FOUND. WILL CONTROL LOCAL BUS
 REPCAU1 AT BUS  974065 MACHINE '1 ': REMOTE BUS NOT SPECIFIED OR NOT FOUND. WILL CONTROL LOCAL BUS
 REPCAU1 AT BUS  974066 MACHINE '1 ': REMOTE BUS NOT SPECIFIED OR NOT FOUND. WILL CONTROL LOCAL BUS
 REPCAU1 AT BUS  974067 MACHINE '1 ': REMOTE BUS NOT SPECIFIED OR NOT FOUND. WILL CONTROL LOCAL BUS
 REPCAU1 AT BUS  985058 MACHINE '1 ': REMOTE BUS NOT SPECIFIED OR NOT FOUND. WILL CONTROL LOCAL BUS
 REPCAU1 AT BUS  988011 MACHINE '1 ': REMOTE BUS NOT SPECIFIED OR NOT FOUND. WILL CONTROL LOCAL BUS
 REPCAU1 AT BUS  988031 MACHINE '1 ': REMOTE BUS NOT SPECIFIED OR NOT FOUND. WILL CONTROL LOCAL BUS
 REPCAU1 AT BUS  988051 MACHINE '1 ': REMOTE BUS NOT SPECIFIED OR NOT FOUND. WILL CONTROL LOCAL BUS
 REPCAU1 AT BUS  990061 MACHINE '1 ': REMOTE BUS NOT SPECIFIED OR NOT FOUND. WILL CONTROL LOCAL BUS
 REECAU1 AT BUS  916038 MACHINE '1 ': REMOTE BUS NOT SPECIFIED OR NOT FOUND. WILL CONTROL LOCAL BUS
 REECAU1 AT BUS  991087 MACHINE '1 ': REMOTE BUS NOT SPECIFIED OR NOT FOUND. WILL CONTROL LOCAL BUS
 REECAU1 AT BUS  971081 MACHINE '1 ': REMOTE BUS NOT SPECIFIED OR NOT FOUND. WILL CONTROL LOCAL BUS
 REECAU1 AT BUS  971082 MACHINE '1 ': REMOTE BUS NOT SPECIFIED OR NOT FOUND. WILL CONTROL LOCAL BUS
 REECAU1 AT BUS  971085 MACHINE '1 ': REMOTE BUS NOT SPECIFIED OR NOT FOUND. WILL CONTROL LOCAL BUS
 REECAU1 AT BUS  971102 MACHINE '1 ': REMOTE BUS NOT SPECIFIED OR NOT FOUND. WILL CONTROL LOCAL BUS
 REECAU1 AT BUS  971111 MACHINE '1 ': REMOTE BUS NOT SPECIFIED OR NOT FOUND. WILL CONTROL LOCAL BUS
 REECAU1 AT BUS  971112 MACHINE '1 ': REMOTE BUS NOT SPECIFIED OR NOT FOUND. WILL CONTROL LOCAL BUS
 REECAU1 AT BUS  971113 MACHINE '1 ': REMOTE BUS NOT SPECIFIED OR NOT FOUND. WILL CONTROL LOCAL BUS
 REECAU1 AT BUS  971121 MACHINE '1 ': REMOTE BUS NOT SPECIFIED OR NOT FOUND. WILL CONTROL LOCAL BUS
 REECAU1 AT BUS  971122 MACHINE '1 ': REMOTE BUS NOT SPECIFIED OR NOT FOUND. WILL CONTROL LOCAL BUS
 REECAU1 AT BUS  971123 MACHINE '1 ': REMOTE BUS NOT SPECIFIED OR NOT FOUND. WILL CONTROL LOCAL BUS
 REECAU1 AT BUS  971124 MACHINE '1 ': REMOTE BUS NOT SPECIFIED OR NOT FOUND. WILL CONTROL LOCAL BUS
 REECAU1 AT BUS  971125 MACHINE '1 ': REMOTE BUS NOT SPECIFIED OR NOT FOUND. WILL CONTROL LOCAL BUS
 REECAU1 AT BUS  971126 MACHINE '1 ': REMOTE BUS NOT SPECIFIED OR NOT FOUND. WILL CONTROL LOCAL BUS
 REECAU1 AT BUS  971131 MACHINE '1 ': REMOTE BUS NOT SPECIFIED OR NOT FOUND. WILL CONTROL LOCAL BUS
 REECAU1 AT BUS  971132 MACHINE '1 ': REMOTE BUS NOT SPECIFIED OR NOT FOUND. WILL CONTROL LOCAL BUS
 REECAU1 AT BUS  971133 MACHINE '1 ': REMOTE BUS NOT SPECIFIED OR NOT FOUND. WILL CONTROL LOCAL BUS
 REECAU1 AT BUS  971141 MACHINE '1 ': REMOTE BUS NOT SPECIFIED OR NOT FOUND. WILL CONTROL LOCAL BUS
 REECAU1 AT BUS  971142 MACHINE '1 ': REMOTE BUS NOT SPECIFIED OR NOT FOUND. WILL CONTROL LOCAL BUS
 REECAU1 AT BUS  971143 MACHINE '1 ': REMOTE BUS NOT SPECIFIED OR NOT FOUND. WILL CONTROL LOCAL BUS
 REECAU1 AT BUS  971144 MACHINE '1 ': REMOTE BUS NOT SPECIFIED OR NOT FOUND. WILL CONTROL LOCAL BUS
 REECAU1 AT BUS  971145 MACHINE '1 ': REMOTE BUS NOT SPECIFIED OR NOT FOUND. WILL CONTROL LOCAL BUS
 REECAU1 AT BUS  971151 MACHINE '1 ': REMOTE BUS NOT SPECIFIED OR NOT FOUND. WILL CONTROL LOCAL BUS
 REECAU1 AT BUS  971152 MACHINE '1 ': REMOTE BUS NOT SPECIFIED OR NOT FOUND. WILL CONTROL LOCAL BUS
 REECAU1 AT BUS  971153 MACHINE '1 ': REMOTE BUS NOT SPECIFIED OR NOT FOUND. WILL CONTROL LOCAL BUS
 REECAU1 AT BUS  971154 MACHINE '1 ': REMOTE BUS NOT SPECIFIED OR NOT FOUND. WILL CONTROL LOCAL BUS
 REECAU1 AT BUS  971155 MACHINE '1 ': REMOTE BUS NOT SPECIFIED OR NOT FOUND. WILL CONTROL LOCAL BUS
 REECAU1 AT BUS  971156 MACHINE '1 ': REMOTE BUS NOT SPECIFIED OR NOT FOUND. WILL CONTROL LOCAL BUS
 REECAU1 AT BUS  971161 MACHINE '1 ': REMOTE BUS NOT SPECIFIED OR NOT FOUND. WILL CONTROL LOCAL BUS
 REECAU1 AT BUS  971162 MACHINE '1 ': REMOTE BUS NOT SPECIFIED OR NOT FOUND. WILL CONTROL LOCAL BUS
 REECAU1 AT BUS  971163 MACHINE '1 ': REMOTE BUS NOT SPECIFIED OR NOT FOUND. WILL CONTROL LOCAL BUS
 REECAU1 AT BUS  971164 MACHINE '1 ': REMOTE BUS NOT SPECIFIED OR NOT FOUND. WILL CONTROL LOCAL BUS
 REECAU1 AT BUS  971165 MACHINE '1 ': REMOTE BUS NOT SPECIFIED OR NOT FOUND. WILL CONTROL LOCAL BUS
 REECAU1 AT BUS  971166 MACHINE '1 ': REMOTE BUS NOT SPECIFIED OR NOT FOUND. WILL CONTROL LOCAL BUS
 REECAU1 AT BUS  971168 MACHINE '1 ': REMOTE BUS NOT SPECIFIED OR NOT FOUND. WILL CONTROL LOCAL BUS
 REECAU1 AT BUS  971169 MACHINE '1 ': REMOTE BUS NOT SPECIFIED OR NOT FOUND. WILL CONTROL LOCAL BUS
 REECAU1 AT BUS  971171 MACHINE '1 ': REMOTE BUS NOT SPECIFIED OR NOT FOUND. WILL CONTROL LOCAL BUS
 REECAU1 AT BUS  971172 MACHINE '1 ': REMOTE BUS NOT SPECIFIED OR NOT FOUND. WILL CONTROL LOCAL BUS
 REECAU1 AT BUS  971177 MACHINE '1 ': REMOTE BUS NOT SPECIFIED OR NOT FOUND. WILL CONTROL LOCAL BUS
 REECAU1 AT BUS  971183 MACHINE '1 ': REMOTE BUS NOT SPECIFIED OR NOT FOUND. WILL CONTROL LOCAL BUS
 REECAU1 AT BUS  972111 MACHINE '1 ': REMOTE BUS NOT SPECIFIED OR NOT FOUND. WILL CONTROL LOCAL BUS
 REECAU1 AT BUS  972112 MACHINE '1 ': REMOTE BUS NOT SPECIFIED OR NOT FOUND. WILL CONTROL LOCAL BUS
 REECAU1 AT BUS  972113 MACHINE '1 ': REMOTE BUS NOT SPECIFIED OR NOT FOUND. WILL CONTROL LOCAL BUS
 REECAU1 AT BUS  972121 MACHINE '1 ': REMOTE BUS NOT SPECIFIED OR NOT FOUND. WILL CONTROL LOCAL BUS
 REECAU1 AT BUS  972221 MACHINE '1 ': REMOTE BUS NOT SPECIFIED OR NOT FOUND. WILL CONTROL LOCAL BUS
 REECAU1 AT BUS  972223 MACHINE '1 ': REMOTE BUS NOT SPECIFIED OR NOT FOUND. WILL CONTROL LOCAL BUS
 REECAU1 AT BUS  972231 MACHINE '1 ': REMOTE BUS NOT SPECIFIED OR NOT FOUND. WILL CONTROL LOCAL BUS
 REECAU1 AT BUS  972232 MACHINE '1 ': REMOTE BUS NOT SPECIFIED OR NOT FOUND. WILL CONTROL LOCAL BUS
 REECAU1 AT BUS  972233 MACHINE '1 ': REMOTE BUS NOT SPECIFIED OR NOT FOUND. WILL CONTROL LOCAL BUS
 REECAU1 AT BUS  972251 MACHINE '1 ': REMOTE BUS NOT SPECIFIED OR NOT FOUND. WILL CONTROL LOCAL BUS
 REECAU1 AT BUS  972252 MACHINE '1 ': REMOTE BUS NOT SPECIFIED OR NOT FOUND. WILL CONTROL LOCAL BUS
 REECAU1 AT BUS  972271 MACHINE '1 ': REMOTE BUS NOT SPECIFIED OR NOT FOUND. WILL CONTROL LOCAL BUS
 REECAU1 AT BUS  972272 MACHINE '1 ': REMOTE BUS NOT SPECIFIED OR NOT FOUND. WILL CONTROL LOCAL BUS
 REECAU1 AT BUS  972291 MACHINE '1 ': REMOTE BUS NOT SPECIFIED OR NOT FOUND. WILL CONTROL LOCAL BUS
 REECAU1 AT BUS  972292 MACHINE '1 ': REMOTE BUS NOT SPECIFIED OR NOT FOUND. WILL CONTROL LOCAL BUS
 REECAU1 AT BUS  972293 MACHINE '1 ': REMOTE BUS NOT SPECIFIED OR NOT FOUND. WILL CONTROL LOCAL BUS
 REECAU1 AT BUS  972321 MACHINE '1 ': REMOTE BUS NOT SPECIFIED OR NOT FOUND. WILL CONTROL LOCAL BUS
 REECAU1 AT BUS  972322 MACHINE '1 ': REMOTE BUS NOT SPECIFIED OR NOT FOUND. WILL CONTROL LOCAL BUS
 REECAU1 AT BUS  972331 MACHINE '1 ': REMOTE BUS NOT SPECIFIED OR NOT FOUND. WILL CONTROL LOCAL BUS
 REECAU1 AT BUS  972351 MACHINE '1 ': REMOTE BUS NOT SPECIFIED OR NOT FOUND. WILL CONTROL LOCAL BUS
 REECAU1 AT BUS  972352 MACHINE '1 ': REMOTE BUS NOT SPECIFIED OR NOT FOUND. WILL CONTROL LOCAL BUS
 REECAU1 AT BUS  972353 MACHINE '1 ': REMOTE BUS NOT SPECIFIED OR NOT FOUND. WILL CONTROL LOCAL BUS
 REECAU1 AT BUS  972361 MACHINE '1 ': REMOTE BUS NOT SPECIFIED OR NOT FOUND. WILL CONTROL LOCAL BUS
 REECAU1 AT BUS  972511 MACHINE '1 ': REMOTE BUS NOT SPECIFIED OR NOT FOUND. WILL CONTROL LOCAL BUS
 REECAU1 AT BUS  972651 MACHINE '1 ': REMOTE BUS NOT SPECIFIED OR NOT FOUND. WILL CONTROL LOCAL BUS
 REECAU1 AT BUS  972831 MACHINE '1 ': REMOTE BUS NOT SPECIFIED OR NOT FOUND. WILL CONTROL LOCAL BUS
 REECAU1 AT BUS  972841 MACHINE '1 ': REMOTE BUS NOT SPECIFIED OR NOT FOUND. WILL CONTROL LOCAL BUS
 REECAU1 AT BUS  973099 MACHINE '1 ': REMOTE BUS NOT SPECIFIED OR NOT FOUND. WILL CONTROL LOCAL BUS
 REECAU1 AT BUS  973155 MACHINE '1 ': REMOTE BUS NOT SPECIFIED OR NOT FOUND. WILL CONTROL LOCAL BUS
 REECAU1 AT BUS  974051 MACHINE '1 ': REMOTE BUS NOT SPECIFIED OR NOT FOUND. WILL CONTROL LOCAL BUS
 REECAU1 AT BUS  974052 MACHINE '1 ': REMOTE BUS NOT SPECIFIED OR NOT FOUND. WILL CONTROL LOCAL BUS
 REECAU1 AT BUS  974053 MACHINE '1 ': REMOTE BUS NOT SPECIFIED OR NOT FOUND. WILL CONTROL LOCAL BUS
 REECAU1 AT BUS  974054 MACHINE '1 ': REMOTE BUS NOT SPECIFIED OR NOT FOUND. WILL CONTROL LOCAL BUS
 REECAU1 AT BUS  974055 MACHINE '1 ': REMOTE BUS NOT SPECIFIED OR NOT FOUND. WILL CONTROL LOCAL BUS
 REECAU1 AT BUS  974056 MACHINE '1 ': REMOTE BUS NOT SPECIFIED OR NOT FOUND. WILL CONTROL LOCAL BUS
 REECAU1 AT BUS  974060 MACHINE '1 ': REMOTE BUS NOT SPECIFIED OR NOT FOUND. WILL CONTROL LOCAL BUS
 REECAU1 AT BUS  974061 MACHINE '1 ': REMOTE BUS NOT SPECIFIED OR NOT FOUND. WILL CONTROL LOCAL BUS
 REECAU1 AT BUS  974065 MACHINE '1 ': REMOTE BUS NOT SPECIFIED OR NOT FOUND. WILL CONTROL LOCAL BUS
 REECAU1 AT BUS  974066 MACHINE '1 ': REMOTE BUS NOT SPECIFIED OR NOT FOUND. WILL CONTROL LOCAL BUS
 REECAU1 AT BUS  974067 MACHINE '1 ': REMOTE BUS NOT SPECIFIED OR NOT FOUND. WILL CONTROL LOCAL BUS
 REECAU1 AT BUS  985058 MACHINE '1 ': REMOTE BUS NOT SPECIFIED OR NOT FOUND. WILL CONTROL LOCAL BUS
 REECAU1 AT BUS  988011 MACHINE '1 ': REMOTE BUS NOT SPECIFIED OR NOT FOUND. WILL CONTROL LOCAL BUS
 REECAU1 AT BUS  988031 MACHINE '1 ': REMOTE BUS NOT SPECIFIED OR NOT FOUND. WILL CONTROL LOCAL BUS
 REECAU1 AT BUS  988051 MACHINE '1 ': REMOTE BUS NOT SPECIFIED OR NOT FOUND. WILL CONTROL LOCAL BUS
 REECAU1 AT BUS  990061 MACHINE '1 ': REMOTE BUS NOT SPECIFIED OR NOT FOUND. WILL CONTROL LOCAL BUS

 Model TGOV1 Bus 937061 [TDCHIKHE_H1 13.800] Machine "1 " :
     initialized out of limit(s) PMECH(I)

     PTI INTERACTIVE POWER SYSTEM SIMULATOR--PSS(R)E     THU, NOV 04 2021  17:06
 NAM 2020-PHU TAI CUC DAI-TH2


 INITIAL CONDITION LOAD FLOW USED 1 ITERATIONS

 ----------------------------- MACHINE INITIAL CONDITIONS -----------------------------
   BUS# X-- NAME --X BASKV ID  ETERM   EFD    POWER    VARS   P.F.  ANGLE   ID     IQ
 113017 MAOMAOTIAO1 110.00 1  1.0000 1.1715   91.91   -5.25 0.9984  19.37 0.1277 0.4422
 126047 THAMCAU1    110.00 1  1.0000 0.9072   59.50  -33.04 0.8742  14.29-0.0867 0.3291
 216099 GUMAN-TQ    220.00 1  1.0000 1.1544  450.00  -90.15 0.9805  35.34 0.1281 0.5592
 910011 BAOLAC_H1   15.800 1  1.0000 1.4394   77.75   33.56 0.9181  -3.21 0.2258 0.3300
 912011 NADUONG1_S1 6.3000 1  1.0000 2.3214   47.52   23.38 0.8973  30.13 0.7535 0.3875
 912012 NADUONG1_S2 6.3000 1  1.0000 2.3214   47.52   23.38 0.8973  30.13 0.7535 0.3875
 912041 THACXANG1   6.3000 1  0.9179 1.3159    8.64   12.40 0.5718 -11.09 0.2303 0.1277
 912053 MAUSON      6.3000 1  0.9671 1.1787    1.94    3.00 0.5438 -14.60 0.0504 0.0310
 913011 THUANHOA_H1 13.800 1  1.0000 1.1417   35.42   -1.97 0.9985  -2.34 0.0405 0.2548
 913051 BACME_H1    13.800 1  1.0000 1.2096   19.44   -0.33 0.9999  -4.69 0.0364 0.2333
 913061 NHOQUE3_H1  13.800 1  1.0000 1.3798   47.52   11.44 0.9722   0.23 0.1613 0.3168
 914001 NGHIALO_H1  10.500 1  1.0111 0.9613   20.65  -12.40 0.8573  42.08 0.1925 0.9332
 914009 TRAMTAU_H1  11.000 1  1.0249 0.6551   12.96  -17.00 0.6062  17.49-0.3043 0.4629
 914011 THACBA_H1   10.500 1  1.0003 0.6795   15.55  -17.00 0.6750  11.68-0.2439 0.4839
 914012 THACBA_H2   10.500 1  1.0000 0.8114   15.55  -12.55 0.7781  10.37-0.1607 0.4419
 914013 THACBA_H3   11.000 1  1.0003 0.6795   15.55  -17.00 0.6750  11.68-0.2439 0.4839
 914015 NGOIHUT2_H1 13.800 1  1.0000 0.9763   20.73  -13.37 0.8405  12.39-0.1039 0.2595
 914017 DONGNGAI_H1 10.500 1  1.0044 0.5687    8.80  -12.40 0.5789  20.61-0.3279 0.5092
 914019 CHANTHINH_H110.500 1  1.0000 0.8295    4.32   -6.03 0.5821   8.11-0.2122 0.2075
 914021 SUOISAP_H1  10.500 1  1.0000 0.8706    5.27   -5.46 0.6943  10.50-0.1767 0.2469
 914023 DONGSUNG_H1 10.500 1  1.0000 1.0545    8.64   -2.99 0.9450   9.45-0.0227 0.3650
 914025 THACCA_H1   11.000 1  1.1069 1.3380   17.93   -6.00 0.9483  15.51 0.0360 0.5681
 914035 VANCHAN     13.800 1  1.0000 0.9008   25.05  -18.58 0.8032  14.49-0.1365 0.3260
 915001 TUYENQUAG_H113.800 1  1.0000 1.3229   49.24   10.16 0.9794   3.73 0.1476 0.3446
 915002 TUYENQUAG_H213.800 1  1.0000 1.3229   49.24   10.16 0.9794   3.73 0.1476 0.3446
 915003 YENSON1     13.800 1  1.0000 1.3457   30.24    8.53 0.9625  13.53 0.1439 0.1848
 915007 TUYENQUAG_H313.800 1  1.0000 1.3789   49.24   15.55 0.9536   3.54 0.1855 0.3374
 915023 SONGLO8B    22.000 1  1.0000 1.4305   22.46   -0.32 0.9999  22.72 0.3885 0.6871
 915025 SONGLO8A    22.000 1  1.0000 1.1992   12.96   -1.43 0.9940  10.56 0.1019 0.4466
 915031 TDCHIEMHOA  22.000 1  1.0000 1.4407   20.73    5.49 0.9667   7.32 0.2144 0.3656
 915035 MIADUONGTQ  22.000 1  1.0000 1.7936   10.80    8.08 0.8008   4.90 0.3954 0.3249
 915043 TDTHACVANG  22.000 1  1.0000 1.7806   12.96    9.47 0.8073   8.47 0.3890 0.3262
 915051 ANHOA       22.000 1  0.9942 1.7936   10.80    8.33 0.7917   0.92 0.4075 0.3241
 916007 LAOCAI      10.000 1  1.0000 1.6789   13.26    6.04 0.9100  20.09 0.3682 0.4093
 916021 BACHA_1     10.000 1  1.0301 1.3374   19.44    0.00 1.0000  16.69 0.0878 0.3455
 916022 BACHA_2     10.000 1  1.0301 1.3374   19.44    0.00 1.0000  16.69 0.0878 0.3455
 916029 BACNA       10.000 1  1.0000 1.5765   12.96    2.67 0.9794  26.97 0.3802 0.5415
 916031 BAONHAI     10.000 1  1.0000 2.2037    6.05    8.60 0.5751  10.92 0.5829 0.2605
 916033 COCSAN_1    6.0000 1  1.0000 1.7376    4.28    3.29 0.7927  14.09 0.3555 0.2968
 916034 COCSAN_2    6.0000 1  1.0000 1.7376    4.28    3.29 0.7927  14.09 0.3555 0.2968
 916035 MINHLUONG   6.0000 1  1.0000 1.3514   12.10    2.07 0.9857  18.72 0.1524 0.3399
 916036 COCSAN_3    6.0000 1  1.0000 1.7376    4.28    3.29 0.7927  14.09 0.3555 0.2968
 916038 MINHLUONGTHU6.0000 1  1.0000 0.0000   13.60    1.77 0.9916   4.90 0.1236 0.9500
 916039 MUONGHUM_1  10.000 1  1.0000 1.5298    6.91    3.14 0.9103  15.46 0.2481 0.3181
 916040 MUONGHUM_2  10.000 1  1.0000 1.5298    6.91    3.14 0.9103  15.46 0.2481 0.3181
 916041 NAMCAN1A    6.0000 1  1.0000 1.9310    4.32    4.52 0.6906  12.60 0.4520 0.2803
 916043 NAMCUN      6.0000 1  1.0000 1.4446   17.28    5.55 0.9521  16.21 0.2028 0.3280
 916045 NAMCUN_2    6.0000 1  1.0000 1.8272    2.94    2.29 0.7893  15.15 0.4139 0.3264
 916047 NAMKHANH    10.000 1  1.0000 0.6056    5.18   -6.55 0.6205  24.00-0.2906 0.5153
 916049 NAMKHOA_3   6.0000 1  1.0000 1.3942    7.78    1.87 0.9723  17.62 0.1757 0.3342
 916051 NAMLUC      6.0000 1  1.0000 1.4411   10.37    3.27 0.9536  15.82 0.2009 0.3284
 916053 NAMPHANG_1  6.0000 1  1.0000 1.3903    7.78    1.82 0.9736  16.73 0.1736 0.3347
 916054 NAMPHANG_2  6.0000 1  1.0000 1.3903    7.78    1.82 0.9736  16.73 0.1736 0.3347
 916055 NAMPUNG     6.0000 1  1.0000 1.8064    4.02    2.70 0.8297  16.59 0.4155 0.3587
 916057 NAMTHA      6.0000 1  1.0000 1.5466   26.13    3.81 0.9895  30.71 0.3889 0.5838
 916059 NAMTOONG    6.0000 1  1.0000 1.4472   14.69    4.78 0.9510  16.04 0.2042 0.3277
 916061 NAMTRUNGHO  6.0000 1  1.0000 1.4390    7.78    1.79 0.9744  19.39 0.2243 0.3926
 916063 NAMTRUNGHO_26.0000 1  1.0000 1.7118    2.81    1.86 0.8331  15.15 0.3509 0.3236
 916065 NAMXAYNOI   6.0000 1  1.0000 1.5337    5.18    2.39 0.9081  16.11 0.2501 0.3176
 916067 NGOIPHAT_1  6.0000 1  1.0000 1.2556   10.37    0.13 0.9999  20.21 0.0996 0.3534
 916068 NGOIPHAT_2  6.0000 1  1.0000 1.2263   10.37    0.13 0.9999  17.16 0.0807 0.3582
 916069 NGOIPHAT_3  6.0000 1  1.0000 1.2556   10.37    0.13 0.9999  20.21 0.0996 0.3534
 916070 NGOIPHAT_4  6.0000 1  1.0000 1.2199    5.18    0.21 0.9992  11.94 0.0318 0.1809
 916071 PAKE        10.000 1  0.9981 2.3597   11.23    7.44 0.8338  22.05 0.7961 0.5289
 916073 PHUCLONG    6.0000 1  1.0000 1.3293    9.50    1.28 0.9910  16.91 0.1403 0.3429
 916075 POHO        6.0000 1  1.0000 1.4988    5.70    2.32 0.9264  15.49 0.2317 0.3216
 916077 SEOTRONGHO_16.0000 1  1.0000 1.5053    4.75    1.98 0.9231  15.46 0.2352 0.3208
 916078 SEOTRONGHO_26.0000 1  1.0000 1.5053    4.75    1.98 0.9231  15.46 0.2352 0.3208
 916079 SUOICHAN1   10.000 1  1.0000 1.6138   11.66    6.81 0.8637  14.74 0.2920 0.3090
 916081 SUPAN_1     10.000 1  1.0000 1.4157   12.96    3.56 0.9642  16.59 0.1873 0.3316
 916083 SUPAN_2     10.000 1  1.0000 1.3727    4.97    4.13 0.7688   6.04 0.1116 0.1135
 916085 TALOI_1     6.0000 1  1.0000 1.5625    6.48    3.28 0.8925  14.86 0.2653 0.3144
 916087 TALOI2      10.000 1  1.0000 1.5348    5.18    2.40 0.9076  15.16 0.2507 0.3174
 916089 TATHANG_1   10.000 1  1.0000 1.4148   12.96    3.54 0.9646  17.50 0.1868 0.3317
 916090 TATHANG_2   10.000 1  1.0000 1.4148   12.96    3.54 0.9646  17.50 0.1868 0.3317
 916091 VINHHA_1    10.000 1  1.0000 1.5381    4.54    2.12 0.9059  14.88 0.2525 0.3172
 916092 VINHHA_2    10.000 1  1.0000 1.5381    4.54    2.12 0.9059  14.88 0.2525 0.3172
 916093 YENHA       6.0000 1  1.0000 1.6664    5.62    3.72 0.8335  14.61 0.3192 0.3038
 916095 SUOICHAN2   10.000 1  1.0000 1.5881    6.91    3.76 0.8783  15.05 0.2787 0.3117
 916115 NXL45       10.000 1  1.0000 1.2994   12.96    2.59 0.9806  14.36 0.0901 0.2328
 916169 NGOISAN1    6.0000 1  1.0000 1.3778   11.60    2.48 0.9779  19.08 0.1668 0.3364
 916169 NGOISAN1    6.0000 2  1.0000 1.3778   11.60    2.48 0.9779  19.08 0.1668 0.3364
 917011 BANCHAT_H1  13.800 1  1.0000 1.0352   47.52  -18.89 0.9293  16.55-0.0594 0.3850
...